src/tests/data/grids/test_droop_vsc.dgs
********************************************************************************
*
* DIgSILENT (R) DGS Export V1.8.4
* Copyright 1997-2026 DIgSILENT GmbH. All rights reserved.
*
* DIgSILENT (C) PowerFactory V25.0.3.0
*
* Date:     03/24/2026 16:36
* Project:  test_droop_vsc (Study Case: Study Case)
*
********************************************************************************


$$General;FID(a:40);Descr(a:40);Val(a:255)
********************************************************************************
*  General Information
*
*  FID: Unique identifier for DGS file
*  Descr: Setting
*  Val: Value
********************************************************************************
  1;Version;7.0


$$ElmComp;FID(a:40);OP(a:1);loc_name(a:80);fold_id(p);outserv(i);typ_id(p)
********************************************************************************
*  Composite Model
*
*  FID: Unique identifier for DGS file
*  OP: Operation (C=create, U=update, D=delete, M=merge, I=ignore)
*  loc_name: Name
*  fold_id: In Folder
*  outserv: Out of Service
*  typ_id: Frame in BlkDef,BlkFrame
********************************************************************************
  2;C;WECC WT Control System Type 4B;10;0;


$$ElmDsl;FID(a:40);OP(a:1);loc_name(a:80);fold_id(p);typ_id(p);outserv(i)
********************************************************************************
*  DSL Model
*
*  FID: Unique identifier for DGS file
*  OP: Operation (C=create, U=update, D=delete, M=merge, I=ignore)
*  loc_name: Name
*  fold_id: In Folder
*  typ_id: Type in BlkDef*
*  outserv: Out of Service
********************************************************************************
  3;C;Protection;2;;1
  4;C;REEC_D Electrical Control Model;2;;0
  5;C;REGC_C Generator-Converter Model;2;;0
  6;C;WTGIBFFR_A Inertial-Base Fast-Frequency;2;;1
  7;C;WTGWGO_A Weak Grid Option Model;2;;1


$$ElmGenstat;FID(a:40);OP(a:1);loc_name(a:80);fold_id(p);outserv(i);sgn(r);cosn(r);cCategory(a);av_mode(a);mode_inp(a:6);pgini(r);qgini(r);sgini(r);cosgini(r);pf_recap(i);phtech(i);ngnum(i);ip_ctrl(i);usetp(r);phiini(r);Kpf(r);scale0(r);ddroop(r);usp_max(r);usp_min(r);cQ_min(r);cQ_max(r)
********************************************************************************
*  Static Generator
*
*  FID: Unique identifier for DGS file
*  OP: Operation (C=create, U=update, D=delete, M=merge, I=ignore)
*  loc_name: Name
*  fold_id: In Folder
*  outserv: Out of Service
*  sgn: Ratings: Rated apparent power in MVA
*  cosn: Ratings: Rated power factor
*  cCategory: Plant Category
*  av_mode: Local controller
*  mode_inp: Dispatch: Input mode
*  pgini: Dispatch: Active power in MW
*  qgini: Dispatch: Reactive power in Mvar
*  sgini: Dispatch: Apparent power in MVA
*  cosgini: Dispatch: Power factor
*  pf_recap: Dispatch: Power factor:ind.:cap.
*  phtech: Technology:3PH:3PH-E:1PH PH-E:1PH PH-N:1PH PH-PH
*  ngnum: Number of: parallel units
*  ip_ctrl: Reference machine
*  usetp: Dispatch: Voltage in p.u.
*  phiini: Dispatch: Angle in deg
*  Kpf: Dispatch: Prim. frequency bias in MW/Hz
*  scale0: Dispatch: Scaling factor
*  ddroop: Voltage droop: Droop in %
*  usp_max: Voltage Setpoint Limits: Max. Voltage Setpoint in p.u.
*  usp_min: Voltage Setpoint Limits: Min. Voltage Setpoint in p.u.
*  cQ_min: Reactive Power Operational Limits: Minimum in Mvar
*  cQ_max: Reactive Power Operational Limits: Maximum in Mvar
********************************************************************************
  8;C;WT Type 4B;10;0;50;1;Wind;vdroop;DEF;25;0;25;1;0;0;1;0;1,05;0;0;1;3;1,1;0,9;-50;50


$$ElmLne;FID(a:40);OP(a:1);loc_name(a:80);fold_id(p);typ_id(p);dline(r);fline(r);GPScoords:MATRIX(a);nlnum(i);inAir(i)
********************************************************************************
*  Line
*
*  FID: Unique identifier for DGS file
*  OP: Operation (C=create, U=update, D=delete, M=merge, I=ignore)
*  loc_name: Name
*  fold_id: In Folder
*  typ_id: Type in TypLne,TypTow,TypGeo,TypCabsys
*  dline: Parameters: Length of Line in km
*  fline: Parameters: Derating Factor
*  GPScoords:MATRIX: Geographical Position [0]
*  nlnum: Number of: parallel Lines
*  inAir: Parameters: Laying:Ground:Air
********************************************************************************
  9;C;Line;10;34;1;1;;1;0


$$ElmNet;FID(a:40);OP(a:1);loc_name(a:80);fold_id(p);frnom(r);pDiagram(p)
********************************************************************************
*  Grid
*
*  FID: Unique identifier for DGS file
*  OP: Operation (C=create, U=update, D=delete, M=merge, I=ignore)
*  loc_name: Name
*  fold_id: In Folder
*  frnom: Nominal Frequency in Hz
*  pDiagram: Diagram in IntGrfnet
********************************************************************************
  10;C;Grid;;50;25


$$ElmTerm;FID(a:40);OP(a:1);loc_name(a:80);fold_id(p);typ_id(p);systype(i);iUsage(i);uknom(r);unknom(r);iminus(i);outserv(i);GPSlat(r);GPSlon(r);vtarget(r)
********************************************************************************
*  Terminal
*
*  FID: Unique identifier for DGS file
*  OP: Operation (C=create, U=update, D=delete, M=merge, I=ignore)
*  loc_name: Name
*  fold_id: In Folder
*  typ_id: Type in TypBar
*  systype: System Type:AC:DC:AC/BI
*  iUsage: Usage:Busbar:Junction Node:Internal Node
*  uknom: Nominal Voltage: Line-Line in kV
*  unknom: Nominal Voltage: Line-Ground in kV
*  iminus: Nominal Voltage: DC-Polarity:positive (+):negative (-):neutral
*  outserv: Out of Service
*  GPSlat: Geographical Position: Latitude / Northing in deg
*  GPSlon: Geographical Position: Longitude / Easting in deg
*  vtarget: Voltage Control: Target Voltage in p.u.
********************************************************************************
  11;C;Bus Slack;10;;0;0;33;19,05256;0;0;0;0;1
  12;C;Bus WT;10;;0;0;33;19,05256;0;0;0;0;1


$$ElmXnet;FID(a:40);OP(a:1);loc_name(a:80);fold_id(p);snss(r);rntxn(r);z2tz1(r);snssmin(r);rntxnmin(r);z2tz1min(r);chr_name(a:40);bustp(a:2);pgini(r);qgini(r);phiini(r);usetp(r);outserv(i);Kpf(r);K(r);cmax(r);xd(r);xq(r)
********************************************************************************
*  External Grid
*
*  FID: Unique identifier for DGS file
*  OP: Operation (C=create, U=update, D=delete, M=merge, I=ignore)
*  loc_name: Name
*  fold_id: In Folder
*  snss: Max. Values: Short-Circuit Power Sk''max in MVA
*  rntxn: Max. Values: R/X Ratio (max.)
*  z2tz1: Max. Values: Z2/Z1 max.
*  snssmin: Min. Values: Short-Circuit Power Sk''min in MVA
*  rntxnmin: Min. Values: R/X Ratio (min.)
*  z2tz1min: Min. Values: Z2/Z1 min.
*  chr_name: Characteristic Name
*  bustp: Bus Type:PQ:PV:SL
*  pgini: Operation Point: Active Power in MW
*  qgini: Operation Point: Reactive Power in Mvar
*  phiini: Operation Point: Angle in deg
*  usetp: Operation Point: Voltage Setpoint in p.u.
*  outserv: Out of Service
*  Kpf: Operation Point: Primary Frequency Bias in MW/Hz
*  K: Operation Point: Secondary Frequency Bias in MW/Hz
*  cmax: Max. Values: c-Factor (max.)
*  xd: Synchronous Reactances: xd in p.u.
*  xq: Synchronous Reactances: xq in p.u.
********************************************************************************
  13;C;External Grid;10;10000;0,1;1;80000;0,1;1;;SL;0;0;0;1;0;0;0;1,1;0,2;0,2


$$IntFolder;FID(a:40);OP(a:1);loc_name(a:80);fold_id(p)
********************************************************************************
*  Folder
*
*  FID: Unique identifier for DGS file
*  OP: Operation (C=create, U=update, D=delete, M=merge, I=ignore)
*  loc_name: Name
*  fold_id: In Folder
********************************************************************************
  14;C;Layers;25
  15;C;Settings;25


$$IntGrf;FID(a:40);OP(a:1);loc_name(a:80);fold_id(p);iCol(i);iVis(i);iLevel(i);rCenterX(r);rCenterY(r);sSymNam(a:80);pDataObj(p);iRot(i);rSizeX(r);rSizeY(r)
********************************************************************************
*  Graphical Net Object
*
*  FID: Unique identifier for DGS file
*  OP: Operation (C=create, U=update, D=delete, M=merge, I=ignore)
*  loc_name: Name
*  fold_id: In Folder
*  iCol: Colour
*  iVis: Visible
*  iLevel: Layer
*  rCenterX: X-Position
*  rCenterY: Y-Position
*  sSymNam: Symbol Name
*  pDataObj: Net Data Object
*  iRot: Rotation
*  rSizeX: X-Size
*  rSizeY: Y-Size
********************************************************************************
  16;C;Graphical Net Object1;25;-16777216;1;1;144,375;109,375;TermStrip;12;0;1;1
  17;C;Graphical Net Object3(1);25;-16777216;1;1;144,375;48,125;d_net;13;0;1;1
  18;C;Graphical Net Object3;25;-16777216;1;1;144,375;65,625;TermStrip;11;0;1;1
  19;C;Graphical Net Object5;25;-16777216;1;1;144,375;87,5;d_lin;9;0;1;1
  20;C;Graphical Net Object7(4);25;-16777216;1;1;144,375;131,25;d_genstat;8;180;1;1


$$IntGrfcon;FID(a:40);OP(a:1);loc_name(a:80);fold_id(p);rX:SIZEROW(i);rX:0(r);rX:1(r);rY:SIZEROW(i);rY:0(r);rY:1(r);iDatConNr(i)
********************************************************************************
*  Graphical Connection
*
*  FID: Unique identifier for DGS file
*  OP: Operation (C=create, U=update, D=delete, M=merge, I=ignore)
*  loc_name: Name
*  fold_id: In Folder
*  rX:SIZEROW: Number of rows for attribute 'rX'
*  rX: X
*  rY:SIZEROW: Number of rows for attribute 'rY'
*  rY: Y
*  iDatConNr: Internal Connection Number
********************************************************************************
  21;C;GCO_1;17;2;144,375;144,375;2;52,5;65,625;0
  22;C;GCO_1;19;2;144,375;144,375;2;87,5;109,375;0
  23;C;GCO_2;19;2;144,375;144,375;2;87,5;65,625;1
  24;C;GCO_1;20;2;144,375;144,375;2;126,875;109,375;0


$$IntGrfnet;FID(a:40);OP(a:1);loc_name(a:80);fold_id(p);snap_on(i);ortho_on(i);pDataFolder(p)
********************************************************************************
*  Graphic
*
*  FID: Unique identifier for DGS file
*  OP: Operation (C=create, U=update, D=delete, M=merge, I=ignore)
*  loc_name: Name
*  fold_id: In Folder
*  snap_on: Drawing aids: Snap elements to grid
*  ortho_on: Drawing aids: Line routing
*  pDataFolder: Target folder for network elements in ElmNet,BlkDef,IntFolder,ElmSubstat,ElmTrfstat,ElmSite,ElmBranch,ElmSubmodel,ElmFolder,IntTemplate
********************************************************************************
  25;C;Grid;;1;1;10


$$StaCubic;FID(a:40);OP(a:1);loc_name(a:80);fold_id(p);obj_bus(i);obj_id(p);it2p1(i);it2p2(i);it2p3(i)
********************************************************************************
*  Cubicle
*
*  FID: Unique identifier for DGS file
*  OP: Operation (C=create, U=update, D=delete, M=merge, I=ignore)
*  loc_name: Name
*  fold_id: In Folder
*  obj_bus: Bus Index
*  obj_id: Connected with in Elm*,RelFuse,StaSua*
*  it2p1: Phase 1
*  it2p2: Phase 2
*  it2p3: Phase 3
********************************************************************************
  26;C;Cub_1;11;0;13;0;1;2
  27;C;Cub_2;11;1;9;0;1;2
  28;C;Cub_2;12;0;9;0;1;2
  29;C;Cub_3;12;0;8;0;1;2


$$StaSwitch;FID(a:40);OP(a:1);loc_name(a:80);fold_id(p);on_off(i);typ_id(p);aUsage(a)
********************************************************************************
*  Switch
*
*  FID: Unique identifier for DGS file
*  OP: Operation (C=create, U=update, D=delete, M=merge, I=ignore)
*  loc_name: Name
*  fold_id: in Cubicle
*  on_off: Closed
*  typ_id: Type in TypSwitch
*  aUsage: Switch Type
********************************************************************************
  30;C;Switch;26;1;;cbk
  31;C;Switch;27;1;;cbk
  32;C;Switch;28;1;;cbk
  33;C;Switch;29;1;;cbk


$$TypLne;FID(a:40);OP(a:1);loc_name(a:80);fold_id(p);uline(r);sline(r);InomAir(r);cohl_(i);rline(r);xline(r);rline0(r);xline0(r);Ithr(r);tmax(r);rtemp(r);systp(i);nlnph(i);nneutral(i);frnom(r);mlei(a:4);bline(r);bline0(r)
********************************************************************************
*  Line Type
*
*  FID: Unique identifier for DGS file
*  OP: Operation (C=create, U=update, D=delete, M=merge, I=ignore)
*  loc_name: Name
*  fold_id: In Folder
*  uline: Rated Voltage in kV
*  sline: Rated Current in kA
*  InomAir: Rated Current (in air) in kA
*  cohl_: Cable / OHL:Cable:Overhead Line
*  rline: Parameters per Length 1,2-Sequence: AC-Resistance R'(20°C) in Ohm/km
*  xline: Parameters per Length 1,2-Sequence: Reactance X' in Ohm/km
*  rline0: Parameters per Length Zero Sequence: AC-Resistance R0' in Ohm/km
*  xline0: Parameters per Length Zero Sequence: Reactance X0' in Ohm/km
*  Ithr: Rated Short-Time (1s) Current (Conductor) in kA
*  tmax: Parameters per Length 1,2-Sequence: Max. Operating Temperature in degC
*  rtemp: Max. End Temperature in degC
*  systp: System Type:AC:DC
*  nlnph: Phases:1:2:3
*  nneutral: Number of Neutrals:0:1
*  frnom: Nominal Frequency in Hz
*  mlei: Parameters per Length 1,2-Sequence: Conductor material
*  bline: Parameters per Length 1,2-Sequence: Susceptance B' in uS/km
*  bline0: Parameters per Length Zero Sequence: Susceptance B0' in uS/km
********************************************************************************
  34;C;Line Type;;33;1;1;1;1;10;0;0;0;80;80;0;3;0;50;Cu;0;0
